4
 OpenBabel03302012423D

 50 52  0  0  0  0  0  0  0  0999 V2000
    2.9157    0.4393    1.5826 C   0  0  0  0  0  0  0  0  0  0  0  0
    2.5715    0.4055    0.1656 N   0  0  0  0  0  0  0  0  0  0  0  0
    1.5992    1.3661   -0.3392 C   0  0  0  0  0  0  0  0  0  0  0  0
    3.1816   -0.5615   -0.7183 C   0  0  0  0  0  0  0  0  0  0  0  0
    2.8119   -0.6905   -2.0598 C   0  0  0  0  0  0  0  0  0  0  0  0
    3.4098   -1.6474   -2.8906 C   0  0  0  0  0  0  0  0  0  0  0  0
    4.4603   -2.5124   -2.4499 C   0  0  0  0  0  0  0  0  0  0  0  0
    5.1122   -3.4688   -3.3382 C   0  0  0  0  0  0  0  0  0  0  0  0
    4.6902   -3.5561   -4.8142 C   0  0  0  0  0  0  0  0  0  0  0  0
    4.4645   -2.4040   -5.6114 C   0  0  0  0  0  0  0  0  0  0  0  0
    4.0336   -2.5046   -6.9402 C   0  0  0  0  0  0  0  0  0  0  0  0
    3.8564   -3.7536   -7.5286 C   0  0  0  0  0  0  0  0  0  0  0  0
    4.0975   -4.9056   -6.7860 C   0  0  0  0  0  0  0  0  0  0  0  0
    4.4902   -4.8116   -5.4454 C   0  0  0  0  0  0  0  0  0  0  0  0
    6.1579   -4.3507   -2.8493 C   0  0  0  0  0  0  0  0  0  0  0  0
    6.8961   -5.2270   -3.6847 C   0  0  0  0  0  0  0  0  0  0  0  0
    7.8839   -6.1017   -3.2020 C   0  0  0  0  0  0  0  0  0  0  0  0
    8.2604   -6.1688   -1.8320 C   0  0  0  0  0  0  0  0  0  0  0  0
    9.1923   -6.9985   -1.3716 N   0  3  0  0  0  0  0  0  0  0  0  0
    9.6480   -7.0552    0.0286 C   0  0  0  0  0  0  0  0  0  0  0  0
    9.9029   -7.9795   -2.1967 C   0  0  0  0  0  0  0  0  0  0  0  0
    7.5816   -5.2685   -0.9867 C   0  0  0  0  0  0  0  0  0  0  0  0
    6.5916   -4.3896   -1.4314 C   0  0  0  0  0  0  0  0  0  0  0  0
    5.9653   -3.3445   -0.1290 Se  0  0  0  0  0  0  0  0  0  0  0  0
    4.7892   -2.3750   -1.0710 C   0  0  0  0  0  0  0  0  0  0  0  0
    4.1639   -1.4317   -0.2495 C   0  0  0  0  0  0  0  0  0  0  0  0
   -0.6471   -1.2209   -2.7029 Br  0  5  0  0  0  0  0  0  0  0  0  0
    2.3619    1.2248    2.1398 H   0  0  0  0  0  0  0  0  0  0  0  0
    4.0007    0.6466    1.7079 H   0  0  0  0  0  0  0  0  0  0  0  0
    2.6674   -0.5379    2.0516 H   0  0  0  0  0  0  0  0  0  0  0  0
    1.2245    2.0391    0.4614 H   0  0  0  0  0  0  0  0  0  0  0  0
    0.7240    0.8321   -0.7630 H   0  0  0  0  0  0  0  0  0  0  0  0
    2.0739    2.0010   -1.1162 H   0  0  0  0  0  0  0  0  0  0  0  0
    2.0452   -0.0578   -2.4858 H   0  0  0  0  0  0  0  0  0  0  0  0
    2.9942   -1.6696   -3.8766 H   0  0  0  0  0  0  0  0  0  0  0  0
    4.6173   -1.4089   -5.2182 H   0  0  0  0  0  0  0  0  0  0  0  0
    3.8391   -1.6097   -7.5185 H   0  0  0  0  0  0  0  0  0  0  0  0
    3.5328   -3.8291   -8.5601 H   0  0  0  0  0  0  0  0  0  0  0  0
    3.9691   -5.8773   -7.2477 H   0  0  0  0  0  0  0  0  0  0  0  0
    4.6281   -5.7378   -4.9049 H   0  0  0  0  0  0  0  0  0  0  0  0
    6.7564   -5.2658   -4.7487 H   0  0  0  0  0  0  0  0  0  0  0  0
    8.3342   -6.7010   -3.9690 H   0  0  0  0  0  0  0  0  0  0  0  0
    9.2093   -6.3589    0.7510 H   0  0  0  0  0  0  0  0  0  0  0  0
   10.7392   -6.8495    0.0683 H   0  0  0  0  0  0  0  0  0  0  0  0
    9.4667   -8.0692    0.4437 H   0  0  0  0  0  0  0  0  0  0  0  0
    9.6148   -8.0501   -3.2508 H   0  0  0  0  0  0  0  0  0  0  0  0
    9.7407   -8.9967   -1.7763 H   0  0  0  0  0  0  0  0  0  0  0  0
   10.9919   -7.7617   -2.1741 H   0  0  0  0  0  0  0  0  0  0  0  0
    7.7844   -5.2058    0.0606 H   0  0  0  0  0  0  0  0  0  0  0  0
    4.4618   -1.3824    0.7879 H   0  0  0  0  0  0  0  0  0  0  0  0
  1  2  1  0  0  0  0
  1 28  1  0  0  0  0
  1 29  1  0  0  0  0
  1 30  1  0  0  0  0
  2  3  1  0  0  0  0
  2  4  1  0  0  0  0
  3 31  1  0  0  0  0
  3 32  1  0  0  0  0
  3 33  1  0  0  0  0
  4  5  1  0  0  0  0
  4 26  2  0  0  0  0
  5  6  2  0  0  0  0
  5 34  1  0  0  0  0
  6  7  1  0  0  0  0
  6 35  1  0  0  0  0
  7  8  1  0  0  0  0
  7 25  2  0  0  0  0
  8  9  1  0  0  0  0
  8 15  2  0  0  0  0
  9 10  1  0  0  0  0
  9 14  2  0  0  0  0
 10 11  2  0  0  0  0
 10 36  1  0  0  0  0
 11 12  1  0  0  0  0
 11 37  1  0  0  0  0
 12 13  2  0  0  0  0
 12 38  1  0  0  0  0
 13 14  1  0  0  0  0
 13 39  1  0  0  0  0
 14 40  1  0  0  0  0
 15 16  1  0  0  0  0
 15 23  1  0  0  0  0
 16 17  2  0  0  0  0
 16 41  1  0  0  0  0
 17 18  1  0  0  0  0
 17 42  1  0  0  0  0
 18 19  2  0  0  0  0
 18 22  1  0  0  0  0
 19 20  1  0  0  0  0
 19 21  1  0  0  0  0
 20 43  1  0  0  0  0
 20 44  1  0  0  0  0
 20 45  1  0  0  0  0
 21 46  1  0  0  0  0
 21 47  1  0  0  0  0
 21 48  1  0  0  0  0
 22 23  2  0  0  0  0
 22 49  1  0  0  0  0
 23 24  1  0  0  0  0
 24 25  1  0  0  0  0
 25 26  1  0  0  0  0
 26 50  1  0  0  0  0
M  CHG  2  19   1  27  -1
M  END
$$$$