5
 OpenBabel03302012423D

 70 73  0  0  0  0  0  0  0  0999 V2000
    2.5367    0.7767   -1.8960 C   0  0  0  0  0  0  0  0  0  0  0  0
    1.9301    0.9196   -0.5736 N   0  0  0  0  0  0  0  0  0  0  0  0
    0.5338    0.5385   -0.4067 C   0  0  0  0  0  0  0  0  0  0  0  0
    2.7027    1.4364    0.5371 C   0  0  0  0  0  0  0  0  0  0  0  0
    2.1771    1.5581    1.8362 C   0  0  0  0  0  0  0  0  0  0  0  0
    2.9557    2.0563    2.8990 C   0  0  0  0  0  0  0  0  0  0  0  0
    4.3093    2.4782    2.7338 C   0  0  0  0  0  0  0  0  0  0  0  0
    5.1273    3.0286    3.8372 C   0  0  0  0  0  0  0  0  0  0  0  0
    4.5821    2.9584    5.2707 C   0  0  0  0  0  0  0  0  0  0  0  0
    3.7884    1.9317    5.8187 C   0  0  0  0  0  0  0  0  0  0  0  0
    3.4225    2.1113    7.1635 C   0  0  0  0  0  0  0  0  0  0  0  0
    3.9636    3.2512    7.7437 C   0  0  0  0  0  0  0  0  0  0  0  0
    3.7891    3.7340    9.1420 C   0  0  0  0  0  0  0  0  0  0  0  0
    2.5450    3.4466    9.8179 S   0  0  0  0  0  0  0  0  0  0  0  0
    4.8682    4.3795    9.8546 N   0  0  0  0  0  0  0  0  0  0  0  0
    6.2560    3.9818    9.6315 C   0  0  0  0  0  0  0  0  0  0  0  0
    6.8033    3.3668   10.9342 C   0  0  0  0  0  0  0  0  0  0  0  0
    6.6429    4.3514   12.1022 C   0  0  0  0  0  0  0  0  0  0  0  0
    5.1687    4.7501   12.2532 C   0  0  0  0  0  0  0  0  0  0  0  0
    4.6440    5.3353   10.9383 C   0  0  0  0  0  0  0  0  0  0  0  0
    4.8377    4.0377    6.5545 S   0  0  0  0  0  0  0  0  0  0  0  0
    6.4369    3.6485    3.5821 C   0  0  0  0  0  0  0  0  0  0  0  0
    7.2603    4.2543    4.5609 C   0  0  0  0  0  0  0  0  0  0  0  0
    8.4472    4.9323    4.2572 C   0  0  0  0  0  0  0  0  0  0  0  0
    8.9709    5.0420    2.9406 C   0  0  0  0  0  0  0  0  0  0  0  0
   10.0681    5.7286    2.6469 N   0  3  0  0  0  0  0  0  0  0  0  0
   10.6439    5.8501    1.2967 C   0  0  0  0  0  0  0  0  0  0  0  0
   10.8369    6.5093    3.6219 C   0  0  0  0  0  0  0  0  0  0  0  0
    8.2339    4.3529    1.9461 C   0  0  0  0  0  0  0  0  0  0  0  0
    7.0442    3.6958    2.2294 C   0  0  0  0  0  0  0  0  0  0  0  0
    6.2674    2.9595    0.9757 S   0  0  0  0  0  0  0  0  0  0  0  0
    4.7773    2.3803    1.3949 C   0  0  0  0  0  0  0  0  0  0  0  0
    4.0189    1.8601    0.3487 C   0  0  0  0  0  0  0  0  0  0  0  0
    2.0074   -3.6652    1.3559 F   0  0  0  0  0  0  0  0  0  0  0  0
    3.0307   -2.4048    0.8028 P   0  5  0  0  0  0  0  0  0  0  0  0
    2.1501   -1.2930    1.7672 F   0  0  0  0  0  0  0  0  0  0  0  0
    1.9635   -2.1290   -0.5167 F   0  0  0  0  0  0  0  0  0  0  0  0
    4.0537   -1.1434    0.2505 F   0  0  0  0  0  0  0  0  0  0  0  0
    4.0956   -2.6752    2.1186 F   0  0  0  0  0  0  0  0  0  0  0  0
    3.9085   -3.5219   -0.1561 F   0  0  0  0  0  0  0  0  0  0  0  0
    1.8311    0.3712   -2.6493 H   0  0  0  0  0  0  0  0  0  0  0  0
    3.4015    0.0807   -1.8500 H   0  0  0  0  0  0  0  0  0  0  0  0
    2.8809    1.7657   -2.2654 H   0  0  0  0  0  0  0  0  0  0  0  0
    0.0962    0.1408   -1.3477 H   0  0  0  0  0  0  0  0  0  0  0  0
   -0.0633    1.4195   -0.0992 H   0  0  0  0  0  0  0  0  0  0  0  0
    0.4346   -0.2585    0.3553 H   0  0  0  0  0  0  0  0  0  0  0  0
    1.1558    1.2712    2.0471 H   0  0  0  0  0  0  0  0  0  0  0  0
    2.4266    2.1413    3.8267 H   0  0  0  0  0  0  0  0  0  0  0  0
    3.4804    1.0441    5.2866 H   0  0  0  0  0  0  0  0  0  0  0  0
    2.8109    1.4015    7.7055 H   0  0  0  0  0  0  0  0  0  0  0  0
    6.8616    4.8680    9.3437 H   0  0  0  0  0  0  0  0  0  0  0  0
    6.3525    3.2170    8.8333 H   0  0  0  0  0  0  0  0  0  0  0  0
    7.8722    3.0885   10.8158 H   0  0  0  0  0  0  0  0  0  0  0  0
    6.2288    2.4413   11.1661 H   0  0  0  0  0  0  0  0  0  0  0  0
    7.2577    5.2574   11.9092 H   0  0  0  0  0  0  0  0  0  0  0  0
    6.9991    3.8828   13.0458 H   0  0  0  0  0  0  0  0  0  0  0  0
    5.0558    5.4924   13.0723 H   0  0  0  0  0  0  0  0  0  0  0  0
    4.5676    3.8502   12.5090 H   0  0  0  0  0  0  0  0  0  0  0  0
    5.1910    6.2763   10.7045 H   0  0  0  0  0  0  0  0  0  0  0  0
    3.5731    5.6011   11.0516 H   0  0  0  0  0  0  0  0  0  0  0  0
    7.0359    4.2726    5.5963 H   0  0  0  0  0  0  0  0  0  0  0  0
    8.9211    5.3687    5.1152 H   0  0  0  0  0  0  0  0  0  0  0  0
   10.1534    5.3162    0.4772 H   0  0  0  0  0  0  0  0  0  0  0  0
   11.6890    5.4760    1.3074 H   0  0  0  0  0  0  0  0  0  0  0  0
   10.6526    6.9179    0.9893 H   0  0  0  0  0  0  0  0  0  0  0  0
   10.4720    6.5247    4.6545 H   0  0  0  0  0  0  0  0  0  0  0  0
   10.8528    7.5762    3.3047 H   0  0  0  0  0  0  0  0  0  0  0  0
   11.8821    6.1388    3.6559 H   0  0  0  0  0  0  0  0  0  0  0  0
    8.5199    4.3116    0.9152 H   0  0  0  0  0  0  0  0  0  0  0  0
    4.4746    1.8169   -0.6307 H   0  0  0  0  0  0  0  0  0  0  0  0
  1  2  1  0  0  0  0
  1 41  1  0  0  0  0
  1 42  1  0  0  0  0
  1 43  1  0  0  0  0
  2  3  1  0  0  0  0
  2  4  1  0  0  0  0
  3 44  1  0  0  0  0
  3 45  1  0  0  0  0
  3 46  1  0  0  0  0
  4  5  1  0  0  0  0
  4 33  2  0  0  0  0
  5  6  2  0  0  0  0
  5 47  1  0  0  0  0
  6  7  1  0  0  0  0
  6 48  1  0  0  0  0
  7  8  1  0  0  0  0
  7 32  2  0  0  0  0
  8  9  1  0  0  0  0
  8 22  2  0  0  0  0
  9 10  2  0  0  0  0
  9 21  1  0  0  0  0
 10 11  1  0  0  0  0
 10 49  1  0  0  0  0
 11 12  2  0  0  0  0
 11 50  1  0  0  0  0
 12 13  1  0  0  0  0
 12 21  1  0  0  0  0
 13 14  2  0  0  0  0
 13 15  1  0  0  0  0
 15 16  1  0  0  0  0
 15 20  1  0  0  0  0
 16 17  1  0  0  0  0
 16 51  1  0  0  0  0
 16 52  1  0  0  0  0
 17 18  1  0  0  0  0
 17 53  1  0  0  0  0
 17 54  1  0  0  0  0
 18 19  1  0  0  0  0
 18 55  1  0  0  0  0
 18 56  1  0  0  0  0
 19 20  1  0  0  0  0
 19 57  1  0  0  0  0
 19 58  1  0  0  0  0
 20 59  1  0  0  0  0
 20 60  1  0  0  0  0
 22 23  1  0  0  0  0
 22 30  1  0  0  0  0
 23 24  2  0  0  0  0
 23 61  1  0  0  0  0
 24 25  1  0  0  0  0
 24 62  1  0  0  0  0
 25 26  2  0  0  0  0
 25 29  1  0  0  0  0
 26 27  1  0  0  0  0
 26 28  1  0  0  0  0
 27 63  1  0  0  0  0
 27 64  1  0  0  0  0
 27 65  1  0  0  0  0
 28 66  1  0  0  0  0
 28 67  1  0  0  0  0
 28 68  1  0  0  0  0
 29 30  2  0  0  0  0
 29 69  1  0  0  0  0
 30 31  1  0  0  0  0
 31 32  1  0  0  0  0
 32 33  1  0  0  0  0
 33 70  1  0  0  0  0
 34 35  1  0  0  0  0
 35 36  1  0  0  0  0
 35 37  1  0  0  0  0
 35 38  1  0  0  0  0
 35 39  1  0  0  0  0
 35 40  1  0  0  0  0
M  CHG  2  26   1  35  -1
M  END
$$$$