12
 OpenBabel03302012423D

 80 84  0  0  0  0  0  0  0  0999 V2000
    3.7493    2.0904   -1.4624 C   0  0  0  0  0  0  0  0  0  0  0  0
    4.4243    2.0192   -0.1639 N   0  0  0  0  0  0  0  0  0  0  0  0
    3.3614    1.7766    0.8731 C   0  0  0  0  0  0  0  0  0  0  0  0
    3.9009    1.0831    2.0792 C   0  0  0  0  0  0  0  0  0  0  0  0
    5.1492    1.8079    2.4666 C   0  0  0  0  0  0  0  0  0  0  0  0
    5.1110    3.4046    2.3214 C   0  0  0  0  0  0  0  0  0  0  0  0
    5.4307    1.5749    3.9524 C   0  0  0  0  0  0  0  0  0  0  0  0
    6.1335    1.2869    1.4557 C   0  0  0  0  0  0  0  0  0  0  0  0
    7.0584    0.2808    1.6676 C   0  0  0  0  0  0  0  0  0  0  0  0
    8.1513    0.0884    0.8084 C   0  0  0  0  0  0  0  0  0  0  0  0
    8.9595   -1.1098    0.9759 C   0  0  0  0  0  0  0  0  0  0  0  0
    8.2060   -2.3476    1.3734 C   0  0  0  0  0  0  0  0  0  0  0  0
    6.9736   -2.6500    0.7812 C   0  0  0  0  0  0  0  0  0  0  0  0
    6.5025   -3.9372    1.0501 C   0  0  0  0  0  0  0  0  0  0  0  0
    7.3513   -4.6893    1.8579 C   0  0  0  0  0  0  0  0  0  0  0  0
    7.1408   -6.0914    2.2755 C   0  0  0  0  0  0  0  0  0  0  0  0
    5.7872   -6.5725    2.4330 S   0  0  0  0  0  0  0  0  0  0  0  0
    8.2513   -6.9985    2.4011 N   0  0  0  0  0  0  0  0  0  0  0  0
    9.4064   -6.9128    1.5070 C   0  0  0  0  0  0  0  0  0  0  0  0
    9.4956   -8.2113    0.6876 C   0  0  0  0  0  0  0  0  0  0  0  0
    9.5344   -9.4309    1.6207 C   0  0  0  0  0  0  0  0  0  0  0  0
    8.3008   -9.4351    2.5342 C   0  0  0  0  0  0  0  0  0  0  0  0
    8.2304   -8.1321    3.3255 C   0  0  0  0  0  0  0  0  0  0  0  0
    8.6753   -3.7260    2.2477 S   0  0  0  0  0  0  0  0  0  0  0  0
   10.3357   -1.2066    0.5717 C   0  0  0  0  0  0  0  0  0  0  0  0
   11.0248   -2.4175    0.6181 C   0  0  0  0  0  0  0  0  0  0  0  0
   12.4049   -2.5287    0.4406 C   0  0  0  0  0  0  0  0  0  0  0  0
   13.2243   -1.4081    0.2584 C   0  0  0  0  0  0  0  0  0  0  0  0
   14.5648   -1.5811    0.1928 N   0  3  0  0  0  0  0  0  0  0  0  0
   15.2536   -2.8841    0.2859 C   0  0  0  0  0  0  0  0  0  0  0  0
   15.5302   -0.4816    0.1430 C   0  0  0  0  0  0  0  0  0  0  0  0
   12.5416   -0.1327    0.0377 C   0  0  0  0  0  0  0  0  0  0  0  0
   11.0987   -0.0405    0.0931 C   0  0  0  0  0  0  0  0  0  0  0  0
   10.0794    1.2522   -0.5175 S   0  0  0  0  0  0  0  0  0  0  0  0
    8.3787    1.1016   -0.0888 C   0  0  0  0  0  0  0  0  0  0  0  0
    7.1787    1.8371   -0.5834 C   0  0  0  0  0  0  0  0  0  0  0  0
    5.9051    1.6988    0.1448 C   0  0  0  0  0  0  0  0  0  0  0  0
    1.2034   -1.6809   -0.7683 F   0  0  0  0  0  0  0  0  0  0  0  0
    2.6068   -2.1909    0.0737 P   0  5  0  0  0  0  0  0  0  0  0  0
    1.7147   -3.4311    0.8480 F   0  0  0  0  0  0  0  0  0  0  0  0
    4.0039   -2.6653    0.9283 F   0  0  0  0  0  0  0  0  0  0  0  0
    3.0023   -3.2586   -1.2100 F   0  0  0  0  0  0  0  0  0  0  0  0
    3.5222   -0.9611   -0.6976 F   0  0  0  0  0  0  0  0  0  0  0  0
    2.1941   -1.1432    1.3598 F   0  0  0  0  0  0  0  0  0  0  0  0
    3.7212    1.1114   -1.9968 H   0  0  0  0  0  0  0  0  0  0  0  0
    3.6508    3.1093   -1.8730 H   0  0  0  0  0  0  0  0  0  0  0  0
    2.6351    2.0572   -1.3325 H   0  0  0  0  0  0  0  0  0  0  0  0
    2.5084    1.1478    0.5335 H   0  0  0  0  0  0  0  0  0  0  0  0
    2.9031    2.7441    1.1635 H   0  0  0  0  0  0  0  0  0  0  0  0
    4.1740    0.1586    1.5186 H   0  0  0  0  0  0  0  0  0  0  0  0
    3.7209    0.1407    2.6358 H   0  0  0  0  0  0  0  0  0  0  0  0
    4.2770    3.8663    2.8885 H   0  0  0  0  0  0  0  0  0  0  0  0
    4.9919    3.8019    1.2867 H   0  0  0  0  0  0  0  0  0  0  0  0
    6.0718    3.8634    2.6377 H   0  0  0  0  0  0  0  0  0  0  0  0
    4.5491    1.9597    4.5218 H   0  0  0  0  0  0  0  0  0  0  0  0
    6.3166    2.1658    4.2755 H   0  0  0  0  0  0  0  0  0  0  0  0
    5.5709    0.5088    4.1947 H   0  0  0  0  0  0  0  0  0  0  0  0
    6.9717   -0.3222    2.5718 H   0  0  0  0  0  0  0  0  0  0  0  0
    6.4539   -1.9792    0.1047 H   0  0  0  0  0  0  0  0  0  0  0  0
    5.5945   -4.3367    0.6196 H   0  0  0  0  0  0  0  0  0  0  0  0
   10.3346   -6.7754    2.1043 H   0  0  0  0  0  0  0  0  0  0  0  0
    9.3262   -6.0675    0.7913 H   0  0  0  0  0  0  0  0  0  0  0  0
   10.3959   -8.2018    0.0360 H   0  0  0  0  0  0  0  0  0  0  0  0
    8.5985   -8.2900    0.0319 H   0  0  0  0  0  0  0  0  0  0  0  0
   10.4569   -9.3917    2.2396 H   0  0  0  0  0  0  0  0  0  0  0  0
    9.5554  -10.3671    1.0204 H   0  0  0  0  0  0  0  0  0  0  0  0
    8.3430  -10.2948    3.2335 H   0  0  0  0  0  0  0  0  0  0  0  0
    7.3823   -9.5260    1.9132 H   0  0  0  0  0  0  0  0  0  0  0  0
    9.1128   -8.0499    4.0014 H   0  0  0  0  0  0  0  0  0  0  0  0
    7.3260   -8.1302    3.9694 H   0  0  0  0  0  0  0  0  0  0  0  0
   10.5675   -3.3494    0.8020 H   0  0  0  0  0  0  0  0  0  0  0  0
   12.7261   -3.5251    0.5761 H   0  0  0  0  0  0  0  0  0  0  0  0
   14.6441   -3.8012    0.3290 H   0  0  0  0  0  0  0  0  0  0  0  0
   15.9298   -2.9434    1.1668 H   0  0  0  0  0  0  0  0  0  0  0  0
   15.8632   -3.0220   -0.6260 H   0  0  0  0  0  0  0  0  0  0  0  0
   15.1001    0.5228    0.2052 H   0  0  0  0  0  0  0  0  0  0  0  0
   16.1174   -0.5854   -0.7866 H   0  0  0  0  0  0  0  0  0  0  0  0
   16.2346   -0.5698    1.0050 H   0  0  0  0  0  0  0  0  0  0  0  0
   13.0816    0.7664   -0.2050 H   0  0  0  0  0  0  0  0  0  0  0  0
    7.2598    2.4742   -1.4508 H   0  0  0  0  0  0  0  0  0  0  0  0
  1  2  1  0  0  0  0
  1 45  1  0  0  0  0
  1 46  1  0  0  0  0
  1 47  1  0  0  0  0
  2  3  1  0  0  0  0
  2 37  1  0  0  0  0
  3  4  1  0  0  0  0
  3 48  1  0  0  0  0
  3 49  1  0  0  0  0
  4  5  1  0  0  0  0
  4 50  1  0  0  0  0
  4 51  1  0  0  0  0
  5  6  1  0  0  0  0
  5  7  1  0  0  0  0
  5  8  1  0  0  0  0
  6 52  1  0  0  0  0
  6 53  1  0  0  0  0
  6 54  1  0  0  0  0
  7 55  1  0  0  0  0
  7 56  1  0  0  0  0
  7 57  1  0  0  0  0
  8  9  1  0  0  0  0
  8 37  2  0  0  0  0
  9 10  2  0  0  0  0
  9 58  1  0  0  0  0
 10 11  1  0  0  0  0
 10 35  1  0  0  0  0
 11 12  1  0  0  0  0
 11 25  2  0  0  0  0
 12 13  2  0  0  0  0
 12 24  1  0  0  0  0
 13 14  1  0  0  0  0
 13 59  1  0  0  0  0
 14 15  2  0  0  0  0
 14 60  1  0  0  0  0
 15 16  1  0  0  0  0
 15 24  1  0  0  0  0
 16 17  2  0  0  0  0
 16 18  1  0  0  0  0
 18 19  1  0  0  0  0
 18 23  1  0  0  0  0
 19 20  1  0  0  0  0
 19 61  1  0  0  0  0
 19 62  1  0  0  0  0
 20 21  1  0  0  0  0
 20 63  1  0  0  0  0
 20 64  1  0  0  0  0
 21 22  1  0  0  0  0
 21 65  1  0  0  0  0
 21 66  1  0  0  0  0
 22 23  1  0  0  0  0
 22 67  1  0  0  0  0
 22 68  1  0  0  0  0
 23 69  1  0  0  0  0
 23 70  1  0  0  0  0
 25 26  1  0  0  0  0
 25 33  1  0  0  0  0
 26 27  2  0  0  0  0
 26 71  1  0  0  0  0
 27 28  1  0  0  0  0
 27 72  1  0  0  0  0
 28 29  2  0  0  0  0
 28 32  1  0  0  0  0
 29 30  1  0  0  0  0
 29 31  1  0  0  0  0
 30 73  1  0  0  0  0
 30 74  1  0  0  0  0
 30 75  1  0  0  0  0
 31 76  1  0  0  0  0
 31 77  1  0  0  0  0
 31 78  1  0  0  0  0
 32 33  2  0  0  0  0
 32 79  1  0  0  0  0
 33 34  1  0  0  0  0
 34 35  1  0  0  0  0
 35 36  2  0  0  0  0
 36 37  1  0  0  0  0
 36 80  1  0  0  0  0
 38 39  1  0  0  0  0
 39 40  1  0  0  0  0
 39 41  1  0  0  0  0
 39 42  1  0  0  0  0
 39 43  1  0  0  0  0
 39 44  1  0  0  0  0
M  CHG  2  29   1  39  -1
M  END
$$$$