19
 OpenBabel03302012423D

 64 68  0  0  0  0  0  0  0  0999 V2000
    1.0034    1.1708    0.7428 C   0  0  0  0  0  0  0  0  0  0  0  0
    2.4674    1.0155    0.7445 N   0  3  0  0  0  0  0  0  0  0  0  0
    3.2146    1.9596   -0.0889 C   0  0  0  0  0  0  0  0  0  0  0  0
    3.0691    0.0571    1.4416 C   0  0  0  0  0  0  0  0  0  0  0  0
    4.4718   -0.1546    1.4093 C   0  0  0  0  0  0  0  0  0  0  0  0
    5.0965   -1.2142    2.1097 C   0  0  0  0  0  0  0  0  0  0  0  0
    4.3872   -2.1441    2.9335 C   0  0  0  0  0  0  0  0  0  0  0  0
    4.9818   -3.2583    3.7177 C   0  0  0  0  0  0  0  0  0  0  0  0
    6.5045   -3.4692    3.6863 C   0  0  0  0  0  0  0  0  0  0  0  0
    7.4215   -2.3890    3.7342 C   0  0  0  0  0  0  0  0  0  0  0  0
    8.8061   -2.5980    3.6922 C   0  0  0  0  0  0  0  0  0  0  0  0
    9.3152   -3.8855    3.6380 C   0  0  0  0  0  0  0  0  0  0  0  0
    8.4544   -4.9752    3.5930 C   0  0  0  0  0  0  0  0  0  0  0  0
    7.0702   -4.7716    3.5983 C   0  0  0  0  0  0  0  0  0  0  0  0
    4.1479   -4.1938    4.5229 C   0  0  0  0  0  0  0  0  0  0  0  0
    4.6919   -5.2181    5.3808 C   0  0  0  0  0  0  0  0  0  0  0  0
    3.8857   -6.1026    6.1370 C   0  0  0  0  0  0  0  0  0  0  0  0
    2.4896   -5.9968    6.0667 C   0  0  0  0  0  0  0  0  0  0  0  0
    1.9057   -5.0246    5.2462 C   0  0  0  0  0  0  0  0  0  0  0  0
    2.7225   -4.1288    4.5304 C   0  0  0  0  0  0  0  0  0  0  0  0
    1.9418   -2.9257    3.6887 S   0  0  0  0  0  0  0  0  0  0  0  0
    2.9307   -1.8862    2.9100 C   0  0  0  0  0  0  0  0  0  0  0  0
    2.3287   -0.8407    2.2195 C   0  0  0  0  0  0  0  0  0  0  0  0
    0.3864   -4.9467    5.1299 C   0  0  0  0  0  0  0  0  0  0  0  0
   -0.3564   -6.1198    5.7764 C   0  0  0  0  0  0  0  0  0  0  0  0
    0.2868   -6.4267    7.1152 C   0  0  0  0  0  0  0  0  0  0  0  0
    1.6496   -6.8489    6.8455 N   0  0  0  0  0  0  0  0  0  0  0  0
    2.1569   -8.1334    7.2926 C   0  0  0  0  0  0  0  0  0  0  0  0
    3.5099   -7.9268    7.9587 C   0  0  0  0  0  0  0  0  0  0  0  0
    4.5117   -7.1826    7.0266 C   0  0  0  0  0  0  0  0  0  0  0  0
    1.3171   -3.1448   -2.1908 F   0  0  0  0  0  0  0  0  0  0  0  0
    2.5244   -2.0509   -1.6576 P   0  5  0  0  0  0  0  0  0  0  0  0
    1.6104   -1.7920   -0.2384 F   0  0  0  0  0  0  0  0  0  0  0  0
    3.4303   -2.3248   -3.0862 F   0  0  0  0  0  0  0  0  0  0  0  0
    3.3549   -3.3313   -0.8703 F   0  0  0  0  0  0  0  0  0  0  0  0
    1.6971   -0.7526   -2.4215 F   0  0  0  0  0  0  0  0  0  0  0  0
    3.7369   -0.9659   -1.1391 F   0  0  0  0  0  0  0  0  0  0  0  0
    0.6487    1.9960    0.0889 H   0  0  0  0  0  0  0  0  0  0  0  0
    0.6270    1.3902    1.7695 H   0  0  0  0  0  0  0  0  0  0  0  0
    0.5110    0.2555    0.3603 H   0  0  0  0  0  0  0  0  0  0  0  0
    2.5529    2.6908   -0.6046 H   0  0  0  0  0  0  0  0  0  0  0  0
    3.7624    1.4303   -0.8901 H   0  0  0  0  0  0  0  0  0  0  0  0
    3.9199    2.5488    0.5328 H   0  0  0  0  0  0  0  0  0  0  0  0
    5.1084    0.4841    0.8140 H   0  0  0  0  0  0  0  0  0  0  0  0
    6.1590   -1.2859    1.9408 H   0  0  0  0  0  0  0  0  0  0  0  0
    7.0852   -1.3683    3.8232 H   0  0  0  0  0  0  0  0  0  0  0  0
    9.4854   -1.7548    3.7145 H   0  0  0  0  0  0  0  0  0  0  0  0
   10.3927   -4.0477    3.6182 H   0  0  0  0  0  0  0  0  0  0  0  0
    8.8590   -5.9805    3.5549 H   0  0  0  0  0  0  0  0  0  0  0  0
    6.4493   -5.6533    3.5291 H   0  0  0  0  0  0  0  0  0  0  0  0
    5.7462   -5.3501    5.5314 H   0  0  0  0  0  0  0  0  0  0  0  0
    1.2478   -0.7728    2.2821 H   0  0  0  0  0  0  0  0  0  0  0  0
    0.0836   -4.9521    4.0558 H   0  0  0  0  0  0  0  0  0  0  0  0
    0.0674   -3.9904    5.5877 H   0  0  0  0  0  0  0  0  0  0  0  0
   -0.2556   -7.0304    5.1458 H   0  0  0  0  0  0  0  0  0  0  0  0
   -1.4347   -5.8706    5.8625 H   0  0  0  0  0  0  0  0  0  0  0  0
   -0.2903   -7.2128    7.6468 H   0  0  0  0  0  0  0  0  0  0  0  0
    0.2835   -5.5080    7.7425 H   0  0  0  0  0  0  0  0  0  0  0  0
    1.4465   -8.6212    7.9987 H   0  0  0  0  0  0  0  0  0  0  0  0
    2.2761   -8.7985    6.4128 H   0  0  0  0  0  0  0  0  0  0  0  0
    3.9399   -8.9069    8.2759 H   0  0  0  0  0  0  0  0  0  0  0  0
    3.3332   -7.3247    8.8732 H   0  0  0  0  0  0  0  0  0  0  0  0
    4.9975   -7.9130    6.3485 H   0  0  0  0  0  0  0  0  0  0  0  0
    5.2957   -6.7578    7.6922 H   0  0  0  0  0  0  0  0  0  0  0  0
  1  2  1  0  0  0  0
  1 38  1  0  0  0  0
  1 39  1  0  0  0  0
  1 40  1  0  0  0  0
  2  3  1  0  0  0  0
  2  4  2  0  0  0  0
  3 41  1  0  0  0  0
  3 42  1  0  0  0  0
  3 43  1  0  0  0  0
  4  5  1  0  0  0  0
  4 23  1  0  0  0  0
  5  6  2  0  0  0  0
  5 44  1  0  0  0  0
  6  7  1  0  0  0  0
  6 45  1  0  0  0  0
  7  8  2  0  0  0  0
  7 22  1  0  0  0  0
  8  9  1  0  0  0  0
  8 15  1  0  0  0  0
  9 10  1  0  0  0  0
  9 14  2  0  0  0  0
 10 11  2  0  0  0  0
 10 46  1  0  0  0  0
 11 12  1  0  0  0  0
 11 47  1  0  0  0  0
 12 13  2  0  0  0  0
 12 48  1  0  0  0  0
 13 14  1  0  0  0  0
 13 49  1  0  0  0  0
 14 50  1  0  0  0  0
 15 16  1  0  0  0  0
 15 20  2  0  0  0  0
 16 17  2  0  0  0  0
 16 51  1  0  0  0  0
 17 18  1  0  0  0  0
 17 30  1  0  0  0  0
 18 19  2  0  0  0  0
 18 27  1  0  0  0  0
 19 20  1  0  0  0  0
 19 24  1  0  0  0  0
 20 21  1  0  0  0  0
 21 22  1  0  0  0  0
 22 23  2  0  0  0  0
 23 52  1  0  0  0  0
 24 25  1  0  0  0  0
 24 53  1  0  0  0  0
 24 54  1  0  0  0  0
 25 26  1  0  0  0  0
 25 55  1  0  0  0  0
 25 56  1  0  0  0  0
 26 27  1  0  0  0  0
 26 57  1  0  0  0  0
 26 58  1  0  0  0  0
 27 28  1  0  0  0  0
 28 29  1  0  0  0  0
 28 59  1  0  0  0  0
 28 60  1  0  0  0  0
 29 30  1  0  0  0  0
 29 61  1  0  0  0  0
 29 62  1  0  0  0  0
 30 63  1  0  0  0  0
 30 64  1  0  0  0  0
 31 32  1  0  0  0  0
 32 33  1  0  0  0  0
 32 34  1  0  0  0  0
 32 35  1  0  0  0  0
 32 36  1  0  0  0  0
 32 37  1  0  0  0  0
M  CHG  2   2   1  32  -1
M  END
$$$$