20
 OpenBabel03302012423D

 52 52  0  0  0  0  0  0  0  0999 V2000
    3.6976    1.4162    0.2749 C   0  0  0  0  0  0  0  0  0  0  0  0
    3.1932    0.0748    0.8560 C   0  0  0  0  0  0  0  0  0  0  0  0
    3.9686   -0.1727    2.1671 C   0  0  0  0  0  0  0  0  0  0  0  0
    1.6957    0.2403    1.2536 C   0  0  0  0  0  0  0  0  0  0  0  0
    3.3775   -1.1498   -0.0987 C   0  0  0  0  0  0  0  0  0  0  0  0
    4.1646   -1.1578   -1.2862 C   0  0  0  0  0  0  0  0  0  0  0  0
    4.3567   -2.2809   -2.1414 C   0  0  0  0  0  0  0  0  0  0  0  0
    5.2051   -2.1738   -3.3940 C   0  0  0  0  0  0  0  0  0  0  0  0
    5.9802   -1.0862   -3.8320 C   0  0  0  0  0  0  0  0  0  0  0  0
    6.6417   -1.3101   -5.0596 C   0  0  0  0  0  0  0  0  0  0  0  0
    6.3972   -2.5591   -5.6151 C   0  0  0  0  0  0  0  0  0  0  0  0
    6.9416   -3.0610   -6.9087 C   0  0  0  0  0  0  0  0  0  0  0  0
    7.6679   -2.3377   -7.5729 O   0  0  0  0  0  0  0  0  0  0  0  0
    6.6433   -4.2908   -7.3729 O   0  0  0  0  0  0  0  0  0  0  0  0
    5.3761   -3.3888   -4.5738 S   0  0  0  0  0  0  0  0  0  0  0  0
    3.7881   -3.5398   -1.8722 C   0  0  0  0  0  0  0  0  0  0  0  0
    2.9697   -3.8680   -0.7858 C   0  0  0  0  0  0  0  0  0  0  0  0
    2.4638   -5.3015   -0.5078 C   0  0  0  0  0  0  0  0  0  0  0  0
    3.0093   -6.3635   -1.4911 C   0  0  0  0  0  0  0  0  0  0  0  0
    2.9194   -5.7062    0.9135 C   0  0  0  0  0  0  0  0  0  0  0  0
    0.9208   -5.3437   -0.5816 C   0  0  0  0  0  0  0  0  0  0  0  0
    2.4498   -2.6231    0.4293 Se  0  3  0  0  0  0  0  0  0  0  0  0
   -0.8545    1.2613   -2.7816 F   0  0  0  0  0  0  0  0  0  0  0  0
    0.8403    1.0208   -2.7248 P   0  5  0  0  0  0  0  0  0  0  0  0
    0.6020   -0.4411   -1.8525 F   0  0  0  0  0  0  0  0  0  0  0  0
    1.0911    2.4790   -3.5925 F   0  0  0  0  0  0  0  0  0  0  0  0
    0.7819    0.1385   -4.1923 F   0  0  0  0  0  0  0  0  0  0  0  0
    0.8923    1.9211   -1.2632 F   0  0  0  0  0  0  0  0  0  0  0  0
    2.5372    0.7743   -2.6778 F   0  0  0  0  0  0  0  0  0  0  0  0
    3.4997    2.2410    0.9958 H   0  0  0  0  0  0  0  0  0  0  0  0
    3.1749    1.6865   -0.6519 H   0  0  0  0  0  0  0  0  0  0  0  0
    4.7851    1.3953    0.0751 H   0  0  0  0  0  0  0  0  0  0  0  0
    3.8018    0.6670    2.8763 H   0  0  0  0  0  0  0  0  0  0  0  0
    5.0595   -0.2446    1.9624 H   0  0  0  0  0  0  0  0  0  0  0  0
    3.6371   -1.1080    2.6618 H   0  0  0  0  0  0  0  0  0  0  0  0
    1.5363    1.1346    1.8896 H   0  0  0  0  0  0  0  0  0  0  0  0
    1.3297   -0.6226    1.8536 H   0  0  0  0  0  0  0  0  0  0  0  0
    1.0341    0.3074    0.3788 H   0  0  0  0  0  0  0  0  0  0  0  0
    4.6743   -0.2464   -1.5436 H   0  0  0  0  0  0  0  0  0  0  0  0
    6.0874   -0.1602   -3.2968 H   0  0  0  0  0  0  0  0  0  0  0  0
    7.2772   -0.5728   -5.5316 H   0  0  0  0  0  0  0  0  0  0  0  0
    6.0714   -4.9071   -6.8976 H   0  0  0  0  0  0  0  0  0  0  0  0
    4.0232   -4.3298   -2.5584 H   0  0  0  0  0  0  0  0  0  0  0  0
    4.1198   -6.3929   -1.4634 H   0  0  0  0  0  0  0  0  0  0  0  0
    2.6706   -6.1630   -2.5304 H   0  0  0  0  0  0  0  0  0  0  0  0
    2.6404   -7.3752   -1.2116 H   0  0  0  0  0  0  0  0  0  0  0  0
    4.0271   -5.6572    0.9883 H   0  0  0  0  0  0  0  0  0  0  0  0
    2.5847   -6.7334    1.1653 H   0  0  0  0  0  0  0  0  0  0  0  0
    2.4928   -5.0347    1.6881 H   0  0  0  0  0  0  0  0  0  0  0  0
    0.5693   -5.0882   -1.6054 H   0  0  0  0  0  0  0  0  0  0  0  0
    0.4515   -4.6348    0.1320 H   0  0  0  0  0  0  0  0  0  0  0  0
    0.5445   -6.3603   -0.3318 H   0  0  0  0  0  0  0  0  0  0  0  0
  1  2  1  0  0  0  0
  1 30  1  0  0  0  0
  1 31  1  0  0  0  0
  1 32  1  0  0  0  0
  2  3  1  0  0  0  0
  2  4  1  0  0  0  0
  2  5  1  0  0  0  0
  3 33  1  0  0  0  0
  3 34  1  0  0  0  0
  3 35  1  0  0  0  0
  4 36  1  0  0  0  0
  4 37  1  0  0  0  0
  4 38  1  0  0  0  0
  5  6  1  0  0  0  0
  5 22  2  0  0  0  0
  6  7  2  0  0  0  0
  6 39  1  0  0  0  0
  7  8  1  0  0  0  0
  7 16  1  0  0  0  0
  8  9  2  0  0  0  0
  8 15  1  0  0  0  0
  9 10  1  0  0  0  0
  9 40  1  0  0  0  0
 10 11  2  0  0  0  0
 10 41  1  0  0  0  0
 11 12  1  0  0  0  0
 11 15  1  0  0  0  0
 12 13  2  0  0  0  0
 12 14  1  0  0  0  0
 14 42  1  0  0  0  0
 16 17  2  0  0  0  0
 16 43  1  0  0  0  0
 17 18  1  0  0  0  0
 17 22  1  0  0  0  0
 18 19  1  0  0  0  0
 18 20  1  0  0  0  0
 18 21  1  0  0  0  0
 19 44  1  0  0  0  0
 19 45  1  0  0  0  0
 19 46  1  0  0  0  0
 20 47  1  0  0  0  0
 20 48  1  0  0  0  0
 20 49  1  0  0  0  0
 21 50  1  0  0  0  0
 21 51  1  0  0  0  0
 21 52  1  0  0  0  0
 23 24  1  0  0  0  0
 24 25  1  0  0  0  0
 24 26  1  0  0  0  0
 24 27  1  0  0  0  0
 24 28  1  0  0  0  0
 24 29  1  0  0  0  0
M  CHG  2  22   1  24  -1
M  END
$$$$