25
 OpenBabel03302012423D

 79 82  0  0  0  0  0  0  0  0999 V2000
    1.2709   -4.2932    1.3840 C   0  0  0  0  0  0  0  0  0  0  0  0
    1.6542   -3.2302    0.3358 C   0  0  0  0  0  0  0  0  0  0  0  0
    2.2184   -1.9897    0.9021 N   0  0  0  0  0  0  0  0  0  0  0  0
    1.5148   -0.6997    0.7229 C   0  0  0  0  0  0  0  0  0  0  0  0
    0.1980   -0.6910   -0.0394 C   0  0  0  0  0  0  0  0  0  0  0  0
    3.5016   -1.9379    1.6122 C   0  0  0  0  0  0  0  0  0  0  0  0
    3.8891   -0.7164    2.2986 S   0  0  0  0  0  0  0  0  0  0  0  0
    4.4511   -3.0868    1.7985 C   0  0  0  0  0  0  0  0  0  0  0  0
    4.4633   -4.3598    1.2375 C   0  0  0  0  0  0  0  0  0  0  0  0
    5.4153   -5.2103    1.7940 C   0  0  0  0  0  0  0  0  0  0  0  0
    6.2426   -4.6289    2.7633 C   0  0  0  0  0  0  0  0  0  0  0  0
    7.3202   -5.3243    3.5655 C   0  0  0  0  0  0  0  0  0  0  0  0
    7.4279   -5.0606    4.9929 C   0  0  0  0  0  0  0  0  0  0  0  0
    6.6052   -4.1500    5.6902 C   0  0  0  0  0  0  0  0  0  0  0  0
    6.7292   -3.9000    7.0541 C   0  0  0  0  0  0  0  0  0  0  0  0
    7.6669   -4.5707    7.8875 C   0  0  0  0  0  0  0  0  0  0  0  0
    7.7543   -4.3213    9.1869 N   0  3  0  0  0  0  0  0  0  0  0  0
    8.6634   -5.0313   10.0993 C   0  0  0  0  0  0  0  0  0  0  0  0
    6.9624   -3.3169    9.8973 C   0  0  0  0  0  0  0  0  0  0  0  0
    8.4866   -5.5257    7.2284 C   0  0  0  0  0  0  0  0  0  0  0  0
    8.3907   -5.7727    5.8589 C   0  0  0  0  0  0  0  0  0  0  0  0
    9.3613   -6.9428    5.1673 S   0  0  0  0  0  0  0  0  0  0  0  0
    9.1243   -7.0958    3.5192 C   0  0  0  0  0  0  0  0  0  0  0  0
    9.8827   -8.0339    2.8197 C   0  0  0  0  0  0  0  0  0  0  0  0
    9.7409   -8.2049    1.4259 C   0  0  0  0  0  0  0  0  0  0  0  0
    8.8407   -7.3687    0.7300 C   0  0  0  0  0  0  0  0  0  0  0  0
    8.1040   -6.4296    1.4672 C   0  0  0  0  0  0  0  0  0  0  0  0
    8.1694   -6.2802    2.8753 C   0  0  0  0  0  0  0  0  0  0  0  0
    8.5692   -7.4653   -0.7649 C   0  0  0  0  0  0  0  0  0  0  0  0
    7.0855   -7.8577   -0.9907 C   0  0  0  0  0  0  0  0  0  0  0  0
    8.7987   -6.0759   -1.4337 C   0  0  0  0  0  0  0  0  0  0  0  0
    9.5098   -8.4764   -1.4847 C   0  0  0  0  0  0  0  0  0  0  0  0
   10.2875   -9.5213   -0.6680 C   0  0  0  0  0  0  0  0  0  0  0  0
   10.4820   -9.2245    0.7407 N   0  0  0  0  0  0  0  0  0  0  0  0
   11.3913  -10.0971    1.4736 C   0  0  0  0  0  0  0  0  0  0  0  0
    5.7495   -3.0376    2.8782 S   0  0  0  0  0  0  0  0  0  0  0  0
    2.6255    1.9125   -1.3663 F   0  0  0  0  0  0  0  0  0  0  0  0
    4.2336    2.0299   -0.7700 P   0  5  0  0  0  0  0  0  0  0  0  0
    4.0300    3.7207   -0.5605 F   0  0  0  0  0  0  0  0  0  0  0  0
    3.6651    1.7888    0.8276 F   0  0  0  0  0  0  0  0  0  0  0  0
    4.8032    2.2885   -2.3693 F   0  0  0  0  0  0  0  0  0  0  0  0
    5.8399    2.1423   -0.1746 F   0  0  0  0  0  0  0  0  0  0  0  0
    4.4373    0.3348   -0.9794 F   0  0  0  0  0  0  0  0  0  0  0  0
    0.8070   -5.1560    0.8540 H   0  0  0  0  0  0  0  0  0  0  0  0
    0.5316   -3.8925    2.1049 H   0  0  0  0  0  0  0  0  0  0  0  0
    2.1149   -4.6956    1.9676 H   0  0  0  0  0  0  0  0  0  0  0  0
    0.7103   -3.0526   -0.2017 H   0  0  0  0  0  0  0  0  0  0  0  0
    2.3254   -3.6262   -0.4462 H   0  0  0  0  0  0  0  0  0  0  0  0
    2.1918   -0.0325    0.1624 H   0  0  0  0  0  0  0  0  0  0  0  0
    1.3082   -0.2526    1.7199 H   0  0  0  0  0  0  0  0  0  0  0  0
    0.3433   -1.0615   -1.0756 H   0  0  0  0  0  0  0  0  0  0  0  0
   -0.1561    0.3600   -0.1045 H   0  0  0  0  0  0  0  0  0  0  0  0
   -0.5647   -1.2852    0.5049 H   0  0  0  0  0  0  0  0  0  0  0  0
    3.8022   -4.7383    0.4862 H   0  0  0  0  0  0  0  0  0  0  0  0
    5.4653   -6.2468    1.4914 H   0  0  0  0  0  0  0  0  0  0  0  0
    5.8231   -3.5921    5.2375 H   0  0  0  0  0  0  0  0  0  0  0  0
    6.0277   -3.1677    7.4053 H   0  0  0  0  0  0  0  0  0  0  0  0
    9.2933   -5.8204    9.6787 H   0  0  0  0  0  0  0  0  0  0  0  0
    8.0648   -5.5253   10.8920 H   0  0  0  0  0  0  0  0  0  0  0  0
    9.3544   -4.3046   10.5761 H   0  0  0  0  0  0  0  0  0  0  0  0
    6.2779   -2.6913    9.3058 H   0  0  0  0  0  0  0  0  0  0  0  0
    7.6447   -2.5889   10.3870 H   0  0  0  0  0  0  0  0  0  0  0  0
    6.3436   -3.8032   10.6776 H   0  0  0  0  0  0  0  0  0  0  0  0
    9.2303   -6.1142    7.7244 H   0  0  0  0  0  0  0  0  0  0  0  0
   10.5669   -8.6427    3.3922 H   0  0  0  0  0  0  0  0  0  0  0  0
    7.4786   -5.7993    0.8950 H   0  0  0  0  0  0  0  0  0  0  0  0
    6.3923   -7.0868   -0.5870 H   0  0  0  0  0  0  0  0  0  0  0  0
    6.8417   -8.8239   -0.5051 H   0  0  0  0  0  0  0  0  0  0  0  0
    6.8576   -7.9278   -2.0757 H   0  0  0  0  0  0  0  0  0  0  0  0
    8.1126   -5.2855   -1.0693 H   0  0  0  0  0  0  0  0  0  0  0  0
    8.6477   -6.1394   -2.5314 H   0  0  0  0  0  0  0  0  0  0  0  0
    9.8377   -5.7278   -1.2380 H   0  0  0  0  0  0  0  0  0  0  0  0
    9.0018   -8.9753   -2.3423 H   0  0  0  0  0  0  0  0  0  0  0  0
   10.3053   -7.8866   -1.9855 H   0  0  0  0  0  0  0  0  0  0  0  0
   11.2898   -9.5989   -1.1545 H   0  0  0  0  0  0  0  0  0  0  0  0
    9.8141  -10.5193   -0.7492 H   0  0  0  0  0  0  0  0  0  0  0  0
   11.8781  -10.8379    0.8035 H   0  0  0  0  0  0  0  0  0  0  0  0
   10.8371  -10.6633    2.2528 H   0  0  0  0  0  0  0  0  0  0  0  0
   12.1963   -9.4931    1.9447 H   0  0  0  0  0  0  0  0  0  0  0  0
  1  2  1  0  0  0  0
  1 44  1  0  0  0  0
  1 45  1  0  0  0  0
  1 46  1  0  0  0  0
  2  3  1  0  0  0  0
  2 47  1  0  0  0  0
  2 48  1  0  0  0  0
  3  4  1  0  0  0  0
  3  6  1  0  0  0  0
  4  5  1  0  0  0  0
  4 49  1  0  0  0  0
  4 50  1  0  0  0  0
  5 51  1  0  0  0  0
  5 52  1  0  0  0  0
  5 53  1  0  0  0  0
  6  7  2  0  0  0  0
  6  8  1  0  0  0  0
  8  9  2  0  0  0  0
  8 36  1  0  0  0  0
  9 10  1  0  0  0  0
  9 54  1  0  0  0  0
 10 11  2  0  0  0  0
 10 55  1  0  0  0  0
 11 12  1  0  0  0  0
 11 36  1  0  0  0  0
 12 13  2  0  0  0  0
 12 28  1  0  0  0  0
 13 14  1  0  0  0  0
 13 21  1  0  0  0  0
 14 15  2  0  0  0  0
 14 56  1  0  0  0  0
 15 16  1  0  0  0  0
 15 57  1  0  0  0  0
 16 17  2  0  0  0  0
 16 20  1  0  0  0  0
 17 18  1  0  0  0  0
 17 19  1  0  0  0  0
 18 58  1  0  0  0  0
 18 59  1  0  0  0  0
 18 60  1  0  0  0  0
 19 61  1  0  0  0  0
 19 62  1  0  0  0  0
 19 63  1  0  0  0  0
 20 21  2  0  0  0  0
 20 64  1  0  0  0  0
 21 22  1  0  0  0  0
 22 23  1  0  0  0  0
 23 24  1  0  0  0  0
 23 28  2  0  0  0  0
 24 25  2  0  0  0  0
 24 65  1  0  0  0  0
 25 26  1  0  0  0  0
 25 34  1  0  0  0  0
 26 27  2  0  0  0  0
 26 29  1  0  0  0  0
 27 28  1  0  0  0  0
 27 66  1  0  0  0  0
 29 30  1  0  0  0  0
 29 31  1  0  0  0  0
 29 32  1  0  0  0  0
 30 67  1  0  0  0  0
 30 68  1  0  0  0  0
 30 69  1  0  0  0  0
 31 70  1  0  0  0  0
 31 71  1  0  0  0  0
 31 72  1  0  0  0  0
 32 33  1  0  0  0  0
 32 73  1  0  0  0  0
 32 74  1  0  0  0  0
 33 34  1  0  0  0  0
 33 75  1  0  0  0  0
 33 76  1  0  0  0  0
 34 35  1  0  0  0  0
 35 77  1  0  0  0  0
 35 78  1  0  0  0  0
 35 79  1  0  0  0  0
 37 38  1  0  0  0  0
 38 39  1  0  0  0  0
 38 40  1  0  0  0  0
 38 41  1  0  0  0  0
 38 42  1  0  0  0  0
 38 43  1  0  0  0  0
M  CHG  2  17   1  38  -1
M  END
$$$$