1
 OpenBabel03302013203D

 76 79  0  0  1  0  0  0  0  0999 V2000
    0.9349   -0.6082   -3.7489 Cl  0  0  0  0  0  0  0  0  0  0  0  0
   -0.1878   -2.9250    0.4784 Cl  0  0  0  0  0  0  0  0  0  0  0  0
   -1.5733    0.1274    2.2843 Cl  0  0  0  0  0  0  0  0  0  0  0  0
    3.3190    0.5554   -1.0452 O   0  0  0  0  0  0  0  0  0  0  0  0
    2.4578    0.6411    0.0682 C   0  0  1  0  0  0  0  0  0  0  0  0
    0.9949    0.7244   -0.3488 C   0  0  0  0  0  0  0  0  0  0  0  0
    0.7314    1.8642   -1.0755 O   0  0  0  0  0  0  0  0  0  0  0  0
   -0.5053    2.1823   -1.5438 C   0  0  0  0  0  0  0  0  0  0  0  0
   -1.5328    1.2154   -1.6518 C   0  0  0  0  0  0  0  0  0  0  0  0
   -2.7971    1.5681   -2.1196 C   0  0  0  0  0  0  0  0  0  0  0  0
   -3.0695    2.8856   -2.4792 C   0  0  0  0  0  0  0  0  0  0  0  0
   -2.0735    3.8594   -2.3751 C   0  0  0  0  0  0  0  0  0  0  0  0
   -2.3494    5.1471   -2.7160 N   0  0  0  0  0  0  0  0  0  0  0  0
   -1.4148    6.1291   -2.6242 C   0  0  0  0  0  0  0  0  0  0  0  0
   -0.1278    5.8322   -2.1728 C   0  0  0  0  0  0  0  0  0  0  0  0
    0.1908    4.5212   -1.8180 C   0  0  0  0  0  0  0  0  0  0  0  0
   -0.7816    3.5121   -1.9134 C   0  0  0  0  0  0  0  0  0  0  0  0
    2.6401   -0.5838    1.0092 C   0  0  0  0  0  0  0  0  0  0  0  0
    4.0360   -0.7885    1.4168 N   0  0  0  0  0  0  0  0  0  0  0  0
    4.6062    0.3320    2.2104 C   0  0  0  0  0  0  0  0  0  0  0  0
    4.5044    0.1099    3.7289 C   0  0  0  0  0  0  0  0  0  0  0  0
    5.1380   -1.1790    4.1403 N   0  0  3  0  0  0  0  0  0  0  0  0
    6.5974   -1.2291    3.7351 C   0  0  2  0  0  0  0  0  0  0  0  0
    7.4655   -2.4439    3.9894 C   0  0  0  0  0  0  0  0  0  0  0  0
    7.0523   -3.5631    4.7444 C   0  0  0  0  0  0  0  0  0  0  0  0
    7.8796   -4.6872    4.8604 C   0  0  0  0  0  0  0  0  0  0  0  0
    9.1279   -4.7156    4.2443 C   0  0  0  0  0  0  0  0  0  0  0  0
    9.5731   -3.6166    3.5197 C   0  0  0  0  0  0  0  0  0  0  0  0
    8.7702   -2.4765    3.3741 C   0  0  0  0  0  0  0  0  0  0  0  0
    9.4194   -1.3440    2.5447 C   0  0  2  0  0  0  0  0  0  0  0  0
    8.6446   -0.0916    1.9302 C   0  0  2  0  0  0  0  0  0  0  0  0
    8.2732    0.5795    3.2393 C   0  0  0  0  0  0  0  0  0  0  0  0
    8.8649    1.8124    3.5433 C   0  0  0  0  0  0  0  0  0  0  0  0
    8.5638    2.4684    4.7404 C   0  0  0  0  0  0  0  0  0  0  0  0
    7.6991    1.8796    5.6637 C   0  0  0  0  0  0  0  0  0  0  0  0
    7.0998    0.6533    5.3755 C   0  0  0  0  0  0  0  0  0  0  0  0
    7.3459    0.0202    4.1432 C   0  0  0  0  0  0  0  0  0  0  0  0
    9.0805   -1.3689    1.1460 C   0  0  0  0  0  0  0  0  0  0  0  0
    8.0549   -2.2305    0.7759 F   0  0  0  0  0  0  0  0  0  0  0  0
   10.1091   -1.1423    0.2517 F   0  0  0  0  0  0  0  0  0  0  0  0
    4.2716   -2.2145    3.5201 C   0  0  0  0  0  0  0  0  0  0  0  0
    4.2885   -2.1514    1.9779 C   0  0  0  0  0  0  0  0  0  0  0  0
    1.2260    0.6787   -3.3593 H   0  0  0  0  0  0  0  0  0  0  0  0
    0.3811   -2.4185   -0.6657 H   0  0  0  0  0  0  0  0  0  0  0  0
   -0.2529    0.2066    2.6704 H   0  0  0  0  0  0  0  0  0  0  0  0
    2.9503   -0.1125   -1.6789 H   0  0  0  0  0  0  0  0  0  0  0  0
    2.6737    1.5887    0.5885 H   0  0  0  0  0  0  0  0  0  0  0  0
    0.3882    0.7741    0.5683 H   0  0  0  0  0  0  0  0  0  0  0  0
    0.7346   -0.1824   -0.9238 H   0  0  0  0  0  0  0  0  0  0  0  0
   -1.3723    0.1816   -1.3812 H   0  0  0  0  0  0  0  0  0  0  0  0
   -3.5699    0.8137   -2.1973 H   0  0  0  0  0  0  0  0  0  0  0  0
   -4.0585    3.1472   -2.8339 H   0  0  0  0  0  0  0  0  0  0  0  0
   -1.6724    7.1427   -2.8977 H   0  0  0  0  0  0  0  0  0  0  0  0
    0.6171    6.6130   -2.0955 H   0  0  0  0  0  0  0  0  0  0  0  0
    1.1919    4.3028   -1.4658 H   0  0  0  0  0  0  0  0  0  0  0  0
    2.3154   -1.4735    0.4282 H   0  0  0  0  0  0  0  0  0  0  0  0
    1.9896   -0.4958    1.9067 H   0  0  0  0  0  0  0  0  0  0  0  0
    4.1554    1.3074    1.9812 H   0  0  0  0  0  0  0  0  0  0  0  0
    5.6524    0.4779    1.9006 H   0  0  0  0  0  0  0  0  0  0  0  0
    3.4337    0.1418    4.0314 H   0  0  0  0  0  0  0  0  0  0  0  0
    4.9438    0.9876    4.2351 H   0  0  0  0  0  0  0  0  0  0  0  0
    6.5841   -1.2591    2.6476 H   0  0  0  0  0  0  0  0  0  0  0  0
    6.1014   -3.5829    5.2401 H   0  0  0  0  0  0  0  0  0  0  0  0
    7.5499   -5.5464    5.4286 H   0  0  0  0  0  0  0  0  0  0  0  0
    9.7598   -5.5910    4.3306 H   0  0  0  0  0  0  0  0  0  0  0  0
   10.5511   -3.6570    3.0547 H   0  0  0  0  0  0  0  0  0  0  0  0
   10.4177   -0.9834    2.8752 H   0  0  0  0  0  0  0  0  0  0  0  0
    7.7187    0.0129    1.3328 H   0  0  0  0  0  0  0  0  0  0  0  0
    9.5455    2.2757    2.8408 H   0  0  0  0  0  0  0  0  0  0  0  0
    9.0049    3.4330    4.9537 H   0  0  0  0  0  0  0  0  0  0  0  0
    7.4732    2.3851    6.5946 H   0  0  0  0  0  0  0  0  0  0  0  0
    6.4054    0.2244    6.0881 H   0  0  0  0  0  0  0  0  0  0  0  0
    3.2206   -2.0612    3.8704 H   0  0  0  0  0  0  0  0  0  0  0  0
    4.5211   -3.2305    3.8677 H   0  0  0  0  0  0  0  0  0  0  0  0
    3.5594   -2.9002    1.5951 H   0  0  0  0  0  0  0  0  0  0  0  0
    5.2661   -2.5178    1.6141 H   0  0  0  0  0  0  0  0  0  0  0  0
  1 43  1  0  0  0  0
  2 44  1  0  0  0  0
  3 45  1  0  0  0  0
  4  5  1  0  0  0  0
  4 46  1  0  0  0  0
  5  6  1  0  0  0  0
  5 18  1  0  0  0  0
  5 47  1  1  0  0  0
  6  7  1  0  0  0  0
  6 48  1  0  0  0  0
  6 49  1  0  0  0  0
  7  8  1  0  0  0  0
  8  9  1  0  0  0  0
  8 17  2  0  0  0  0
  9 10  2  0  0  0  0
  9 50  1  0  0  0  0
 10 11  1  0  0  0  0
 10 51  1  0  0  0  0
 11 12  2  0  0  0  0
 11 52  1  0  0  0  0
 12 13  1  0  0  0  0
 12 17  1  0  0  0  0
 13 14  2  0  0  0  0
 14 15  1  0  0  0  0
 14 53  1  0  0  0  0
 15 16  2  0  0  0  0
 15 54  1  0  0  0  0
 16 17  1  0  0  0  0
 16 55  1  0  0  0  0
 18 19  1  0  0  0  0
 18 56  1  0  0  0  0
 18 57  1  0  0  0  0
 19 20  1  0  0  0  0
 19 42  1  0  0  0  0
 20 21  1  0  0  0  0
 20 58  1  0  0  0  0
 20 59  1  0  0  0  0
 21 22  1  0  0  0  0
 21 60  1  0  0  0  0
 21 61  1  0  0  0  0
 22 23  1  0  0  0  0
 22 41  1  0  0  0  0
 23 24  1  0  0  0  0
 23 37  1  0  0  0  0
 23 62  1  6  0  0  0
 24 25  1  0  0  0  0
 24 29  2  0  0  0  0
 25 26  2  0  0  0  0
 25 63  1  0  0  0  0
 26 27  1  0  0  0  0
 26 64  1  0  0  0  0
 27 28  2  0  0  0  0
 27 65  1  0  0  0  0
 28 29  1  0  0  0  0
 28 66  1  0  0  0  0
 29 30  1  0  0  0  0
 30 31  1  0  0  0  0
 30 38  1  0  0  0  0
 30 67  1  1  0  0  0
 31 32  1  0  0  0  0
 31 38  1  0  0  0  0
 31 68  1  6  0  0  0
 32 33  1  0  0  0  0
 32 37  2  0  0  0  0
 33 34  2  0  0  0  0
 33 69  1  0  0  0  0
 34 35  1  0  0  0  0
 34 70  1  0  0  0  0
 35 36  2  0  0  0  0
 35 71  1  0  0  0  0
 36 37  1  0  0  0  0
 36 72  1  0  0  0  0
 38 39  1  0  0  0  0
 38 40  1  0  0  0  0
 41 42  1  0  0  0  0
 41 73  1  0  0  0  0
 41 74  1  0  0  0  0
 42 75  1  0  0  0  0
 42 76  1  0  0  0  0
M  END
$$$$