2
 OpenBabel03302013203D

 41 42  0  0  0  0  0  0  0  0999 V2000
    2.8743    0.2960   -1.5335 C   0  0  0  0  0  0  0  0  0  0  0  0
    2.4241    0.9156   -0.3858 O   0  0  0  0  0  0  0  0  0  0  0  0
    3.1997    1.3018    0.6606 C   0  0  0  0  0  0  0  0  0  0  0  0
    4.5979    1.1433    0.6674 C   0  0  0  0  0  0  0  0  0  0  0  0
    5.3564    1.5808    1.7571 C   0  0  0  0  0  0  0  0  0  0  0  0
    4.7394    2.1752    2.8755 C   0  0  0  0  0  0  0  0  0  0  0  0
    5.5100    2.6594    3.9917 N   0  0  0  0  0  0  0  0  0  0  0  0
    6.8330    3.2345    3.7743 C   0  0  0  0  0  0  0  0  0  0  0  0
    4.9836    2.7051    5.3290 C   0  0  0  0  0  0  0  0  0  0  0  0
    5.3904    3.7033    6.1724 N   0  0  0  0  0  0  0  0  0  0  0  0
    4.9678    3.7857    7.4675 C   0  0  0  0  0  0  0  0  0  0  0  0
    5.4474    4.8915    8.3487 C   0  0  0  0  0  0  0  0  0  0  0  0
    4.1252    2.8456    7.9698 N   0  0  0  0  0  0  0  0  0  0  0  0
    3.6936    1.8419    7.1694 C   0  0  0  0  0  0  0  0  0  0  0  0
    4.1043    1.7314    5.8562 C   0  0  0  0  0  0  0  0  0  0  0  0
    3.6424    0.4093    5.3088 C   0  0  0  0  0  0  0  0  0  0  0  0
    2.4950    0.0755    6.2607 C   0  0  0  0  0  0  0  0  0  0  0  0
    2.8868    0.6784    7.6078 C   0  0  0  0  0  0  0  0  0  0  0  0
    3.3369    2.3329    2.8541 C   0  0  0  0  0  0  0  0  0  0  0  0
    2.5801    1.8943    1.7639 C   0  0  0  0  0  0  0  0  0  0  0  0
    1.7193   -2.5482    0.6705 Cl  0  0  0  0  0  0  0  0  0  0  0  0
    2.0251    0.1716   -2.2356 H   0  0  0  0  0  0  0  0  0  0  0  0
    3.2894   -0.7052   -1.2909 H   0  0  0  0  0  0  0  0  0  0  0  0
    3.6489    0.9190   -2.0293 H   0  0  0  0  0  0  0  0  0  0  0  0
    5.1125    0.6876   -0.1674 H   0  0  0  0  0  0  0  0  0  0  0  0
    6.4258    1.4313    1.7189 H   0  0  0  0  0  0  0  0  0  0  0  0
    7.1432    3.2274    2.7115 H   0  0  0  0  0  0  0  0  0  0  0  0
    7.5873    2.6777    4.3688 H   0  0  0  0  0  0  0  0  0  0  0  0
    6.8379    4.3003    4.0876 H   0  0  0  0  0  0  0  0  0  0  0  0
    6.1383    5.5650    7.7979 H   0  0  0  0  0  0  0  0  0  0  0  0
    5.9836    4.4637    9.2216 H   0  0  0  0  0  0  0  0  0  0  0  0
    4.5799    5.4827    8.7092 H   0  0  0  0  0  0  0  0  0  0  0  0
    4.4875   -0.3045    5.4156 H   0  0  0  0  0  0  0  0  0  0  0  0
    3.2533    0.3567    4.2801 H   0  0  0  0  0  0  0  0  0  0  0  0
    2.1711   -0.9858    6.2793 H   0  0  0  0  0  0  0  0  0  0  0  0
    1.6294    0.6806    5.8977 H   0  0  0  0  0  0  0  0  0  0  0  0
    3.5500    0.0089    8.1956 H   0  0  0  0  0  0  0  0  0  0  0  0
    1.9752    0.9446    8.1839 H   0  0  0  0  0  0  0  0  0  0  0  0
    2.8197    2.8009    3.6815 H   0  0  0  0  0  0  0  0  0  0  0  0
    1.5048    2.0236    1.7760 H   0  0  0  0  0  0  0  0  0  0  0  0
    2.3226   -1.4287    1.1924 H   0  0  0  0  0  0  0  0  0  0  0  0
  1  2  1  0  0  0  0
  1 22  1  0  0  0  0
  1 23  1  0  0  0  0
  1 24  1  0  0  0  0
  2  3  1  0  0  0  0
  3  4  1  0  0  0  0
  3 20  2  0  0  0  0
  4  5  2  0  0  0  0
  4 25  1  0  0  0  0
  5  6  1  0  0  0  0
  5 26  1  0  0  0  0
  6  7  1  0  0  0  0
  6 19  2  0  0  0  0
  7  8  1  0  0  0  0
  7  9  1  0  0  0  0
  8 27  1  0  0  0  0
  8 28  1  0  0  0  0
  8 29  1  0  0  0  0
  9 10  1  0  0  0  0
  9 15  2  0  0  0  0
 10 11  2  0  0  0  0
 11 12  1  0  0  0  0
 11 13  1  0  0  0  0
 12 30  1  0  0  0  0
 12 31  1  0  0  0  0
 12 32  1  0  0  0  0
 13 14  2  0  0  0  0
 14 15  1  0  0  0  0
 14 18  1  0  0  0  0
 15 16  1  0  0  0  0
 16 17  1  0  0  0  0
 16 33  1  0  0  0  0
 16 34  1  0  0  0  0
 17 18  1  0  0  0  0
 17 35  1  0  0  0  0
 17 36  1  0  0  0  0
 18 37  1  0  0  0  0
 18 38  1  0  0  0  0
 19 20  1  0  0  0  0
 19 39  1  0  0  0  0
 20 40  1  0  0  0  0
 21 41  1  0  0  0  0
M  END
$$$$