3
 OpenBabel03302012423D

 69 71  0  0  0  0  0  0  0  0999 V2000
    1.9429    1.1481   -3.5022 C   0  0  0  0  0  0  0  0  0  0  0  0
    1.4498    2.2662   -2.5703 C   0  0  0  0  0  0  0  0  0  0  0  0
    1.9115    2.1188   -1.1778 N   0  0  0  0  0  0  0  0  0  0  0  0
    1.0298    1.5691   -0.1265 C   0  0  0  0  0  0  0  0  0  0  0  0
   -0.3355    1.0404   -0.5679 C   0  0  0  0  0  0  0  0  0  0  0  0
    3.1591    2.5287   -0.7327 C   0  0  0  0  0  0  0  0  0  0  0  0
    3.4474    2.3545    0.4450 O   0  0  0  0  0  0  0  0  0  0  0  0
    4.2172    3.2066   -1.5376 C   0  0  0  0  0  0  0  0  0  0  0  0
    5.4633    3.5449   -0.9896 C   0  0  0  0  0  0  0  0  0  0  0  0
    6.3352    4.1601   -1.8829 C   0  0  0  0  0  0  0  0  0  0  0  0
    5.8069    4.3549   -3.1629 C   0  0  0  0  0  0  0  0  0  0  0  0
    6.5168    5.0009   -4.3312 C   0  0  0  0  0  0  0  0  0  0  0  0
    6.3812    4.4061   -5.6583 C   0  0  0  0  0  0  0  0  0  0  0  0
    5.6357    3.2395   -5.9415 C   0  0  0  0  0  0  0  0  0  0  0  0
    5.5189    2.7052   -7.2349 C   0  0  0  0  0  0  0  0  0  0  0  0
    6.1631    3.2719   -8.3743 C   0  0  0  0  0  0  0  0  0  0  0  0
    6.0530    2.7626   -9.5953 N   0  3  0  0  0  0  0  0  0  0  0  0
    6.7245    3.3056  -10.7864 C   0  0  0  0  0  0  0  0  0  0  0  0
    5.2459    1.5856   -9.9288 C   0  0  0  0  0  0  0  0  0  0  0  0
    6.9482    4.4168   -8.1131 C   0  0  0  0  0  0  0  0  0  0  0  0
    7.0647    4.9617   -6.8437 C   0  0  0  0  0  0  0  0  0  0  0  0
    8.0419    6.2800   -6.6554 S   0  0  0  0  0  0  0  0  0  0  0  0
    8.0804    6.8405   -5.0946 C   0  0  0  0  0  0  0  0  0  0  0  0
    8.8618    7.9696   -4.8649 C   0  0  0  0  0  0  0  0  0  0  0  0
    8.9527    8.5702   -3.5991 C   0  0  0  0  0  0  0  0  0  0  0  0
    9.7780    9.7519   -3.3735 N   0  0  0  0  0  0  0  0  0  0  0  0
    9.9247   10.3855   -2.0692 C   0  0  0  0  0  0  0  0  0  0  0  0
   10.5264   10.4270   -4.4341 C   0  0  0  0  0  0  0  0  0  0  0  0
    8.1847    7.9679   -2.5771 C   0  0  0  0  0  0  0  0  0  0  0  0
    7.3979    6.8327   -2.8141 C   0  0  0  0  0  0  0  0  0  0  0  0
    7.3305    6.1965   -4.0829 C   0  0  0  0  0  0  0  0  0  0  0  0
    4.2359    3.7257   -3.1311 S   0  0  0  0  0  0  0  0  0  0  0  0
    3.3057   -3.0199   -1.6613 F   0  0  0  0  0  0  0  0  0  0  0  0
    3.8097   -1.8654   -0.4936 P   0  5  0  0  0  0  0  0  0  0  0  0
    2.7751   -0.7084   -1.2064 F   0  0  0  0  0  0  0  0  0  0  0  0
    2.5369   -2.3617    0.5474 F   0  0  0  0  0  0  0  0  0  0  0  0
    4.8501   -3.0308    0.2167 F   0  0  0  0  0  0  0  0  0  0  0  0
    5.0783   -1.3620   -1.5372 F   0  0  0  0  0  0  0  0  0  0  0  0
    4.3093   -0.7056    0.6714 F   0  0  0  0  0  0  0  0  0  0  0  0
    1.4888    1.2911   -4.5087 H   0  0  0  0  0  0  0  0  0  0  0  0
    1.5965    0.1569   -3.1412 H   0  0  0  0  0  0  0  0  0  0  0  0
    3.0441    1.1348   -3.6149 H   0  0  0  0  0  0  0  0  0  0  0  0
    0.3512    2.2158   -2.6355 H   0  0  0  0  0  0  0  0  0  0  0  0
    1.6700    3.2745   -2.9589 H   0  0  0  0  0  0  0  0  0  0  0  0
    0.8588    2.3444    0.6473 H   0  0  0  0  0  0  0  0  0  0  0  0
    1.5437    0.7096    0.3606 H   0  0  0  0  0  0  0  0  0  0  0  0
   -0.9702    1.8578   -0.9656 H   0  0  0  0  0  0  0  0  0  0  0  0
   -0.8545    0.6227    0.3214 H   0  0  0  0  0  0  0  0  0  0  0  0
   -0.2146    0.2271   -1.3149 H   0  0  0  0  0  0  0  0  0  0  0  0
    5.7394    3.3477    0.0401 H   0  0  0  0  0  0  0  0  0  0  0  0
    7.3351    4.4412   -1.5815 H   0  0  0  0  0  0  0  0  0  0  0  0
    5.1202    2.6811   -5.1905 H   0  0  0  0  0  0  0  0  0  0  0  0
    4.9058    1.8263   -7.2731 H   0  0  0  0  0  0  0  0  0  0  0  0
    7.3602    4.1890  -10.6669 H   0  0  0  0  0  0  0  0  0  0  0  0
    5.9660    3.5907  -11.5457 H   0  0  0  0  0  0  0  0  0  0  0  0
    7.3884    2.5286  -11.2208 H   0  0  0  0  0  0  0  0  0  0  0  0
    4.6888    1.1102   -9.1154 H   0  0  0  0  0  0  0  0  0  0  0  0
    5.9018    0.7994  -10.3593 H   0  0  0  0  0  0  0  0  0  0  0  0
    4.4856    1.8662  -10.6894 H   0  0  0  0  0  0  0  0  0  0  0  0
    7.5054    4.9430   -8.8593 H   0  0  0  0  0  0  0  0  0  0  0  0
    9.3815    8.3447   -5.7232 H   0  0  0  0  0  0  0  0  0  0  0  0
    9.3843    9.9050   -1.2449 H   0  0  0  0  0  0  0  0  0  0  0  0
    9.5673   11.4353   -2.1235 H   0  0  0  0  0  0  0  0  0  0  0  0
   10.9976   10.3869   -1.7827 H   0  0  0  0  0  0  0  0  0  0  0  0
   10.4451   10.0002   -5.4397 H   0  0  0  0  0  0  0  0  0  0  0  0
   11.6076   10.4225   -4.1823 H   0  0  0  0  0  0  0  0  0  0  0  0
   10.1806   11.4775   -4.5232 H   0  0  0  0  0  0  0  0  0  0  0  0
    8.1469    8.3423   -1.5717 H   0  0  0  0  0  0  0  0  0  0  0  0
    6.8356    6.5079   -1.9619 H   0  0  0  0  0  0  0  0  0  0  0  0
  1  2  1  0  0  0  0
  1 40  1  0  0  0  0
  1 41  1  0  0  0  0
  1 42  1  0  0  0  0
  2  3  1  0  0  0  0
  2 43  1  0  0  0  0
  2 44  1  0  0  0  0
  3  4  1  0  0  0  0
  3  6  1  0  0  0  0
  4  5  1  0  0  0  0
  4 45  1  0  0  0  0
  4 46  1  0  0  0  0
  5 47  1  0  0  0  0
  5 48  1  0  0  0  0
  5 49  1  0  0  0  0
  6  7  2  0  0  0  0
  6  8  1  0  0  0  0
  8  9  2  0  0  0  0
  8 32  1  0  0  0  0
  9 10  1  0  0  0  0
  9 50  1  0  0  0  0
 10 11  2  0  0  0  0
 10 51  1  0  0  0  0
 11 12  1  0  0  0  0
 11 32  1  0  0  0  0
 12 13  2  0  0  0  0
 12 31  1  0  0  0  0
 13 14  1  0  0  0  0
 13 21  1  0  0  0  0
 14 15  2  0  0  0  0
 14 52  1  0  0  0  0
 15 16  1  0  0  0  0
 15 53  1  0  0  0  0
 16 17  2  0  0  0  0
 16 20  1  0  0  0  0
 17 18  1  0  0  0  0
 17 19  1  0  0  0  0
 18 54  1  0  0  0  0
 18 55  1  0  0  0  0
 18 56  1  0  0  0  0
 19 57  1  0  0  0  0
 19 58  1  0  0  0  0
 19 59  1  0  0  0  0
 20 21  2  0  0  0  0
 20 60  1  0  0  0  0
 21 22  1  0  0  0  0
 22 23  1  0  0  0  0
 23 24  1  0  0  0  0
 23 31  2  0  0  0  0
 24 25  2  0  0  0  0
 24 61  1  0  0  0  0
 25 26  1  0  0  0  0
 25 29  1  0  0  0  0
 26 27  1  0  0  0  0
 26 28  1  0  0  0  0
 27 62  1  0  0  0  0
 27 63  1  0  0  0  0
 27 64  1  0  0  0  0
 28 65  1  0  0  0  0
 28 66  1  0  0  0  0
 28 67  1  0  0  0  0
 29 30  2  0  0  0  0
 29 68  1  0  0  0  0
 30 31  1  0  0  0  0
 30 69  1  0  0  0  0
 33 34  1  0  0  0  0
 34 35  1  0  0  0  0
 34 36  1  0  0  0  0
 34 37  1  0  0  0  0
 34 38  1  0  0  0  0
 34 39  1  0  0  0  0
M  CHG  2  17   1  34  -1
M  END
$$$$