
 OpenBabel03242023333D

 40 41  0  0  1  0  0  0  0  0999 V2000
    0.8508    0.1687    0.1057 C   0  0  0  0  0  0  0  0  0  0  0  0
    2.4390    0.0821    0.0348 B   0  0  0  0  0  0  0  0  0  0  0  0
    3.1325   -1.2256   -0.0421 C   0  0  0  0  0  0  0  0  0  0  0  0
    4.5232   -1.2470   -0.1270 C   0  0  0  0  0  0  0  0  0  0  0  0
    5.2756   -0.0590   -0.1409 C   0  0  0  0  0  0  0  0  0  0  0  0
    6.6711   -0.1277   -0.2441 C   0  0  0  0  0  0  0  0  0  0  0  0
    7.4317    1.0364   -0.2633 C   0  0  0  0  0  0  0  0  0  0  0  0
    6.8155    2.2804   -0.1657 C   0  0  0  0  0  0  0  0  0  0  0  0
    5.4120    2.3889   -0.0505 C   0  0  0  0  0  0  0  0  0  0  0  0
    4.8042    3.6027    0.0660 O   0  0  0  0  0  0  0  0  0  0  0  0
    5.4638    4.8194    0.0893 C   0  0  0  0  0  0  0  0  0  0  0  0
    4.4682    5.9708    0.2857 C   0  0  3  0  0  0  0  0  0  0  0  0
    3.7701    5.8144    1.4967 O   0  0  0  0  0  0  0  0  0  0  0  0
    5.1751    7.3494    0.2511 C   0  0  0  0  0  0  0  0  0  0  0  0
    5.9223    7.5970   -1.0055 N   0  0  0  0  0  0  0  0  0  0  0  0
    5.0375    7.6257   -2.1842 C   0  0  0  0  0  0  0  0  0  0  0  0
    6.6451    8.8762   -0.9060 C   0  0  0  0  0  0  0  0  0  0  0  0
    4.6264    1.2091   -0.0494 C   0  0  0  0  0  0  0  0  0  0  0  0
    3.2594    1.2791    0.0317 N   0  0  0  0  0  0  0  0  0  0  0  0
    0.4064   -0.8489    0.0935 H   0  0  0  0  0  0  0  0  0  0  0  0
    0.4766    0.7320   -0.7741 H   0  0  0  0  0  0  0  0  0  0  0  0
    0.5423    0.6881    1.0354 H   0  0  0  0  0  0  0  0  0  0  0  0
    2.5715   -2.1514   -0.0396 H   0  0  0  0  0  0  0  0  0  0  0  0
    5.0206   -2.2077   -0.1885 H   0  0  0  0  0  0  0  0  0  0  0  0
    7.1749   -1.0838   -0.3166 H   0  0  0  0  0  0  0  0  0  0  0  0
    8.5088    0.9756   -0.3512 H   0  0  0  0  0  0  0  0  0  0  0  0
    7.4477    3.1568   -0.1794 H   0  0  0  0  0  0  0  0  0  0  0  0
    6.0046    4.9556   -0.8729 H   0  0  0  0  0  0  0  0  0  0  0  0
    6.1960    4.8329    0.9276 H   0  0  0  0  0  0  0  0  0  0  0  0
    3.7145    5.9299   -0.5262 H   0  0  0  0  0  0  0  0  0  0  0  0
    4.4275    5.8833    2.2383 H   0  0  0  0  0  0  0  0  0  0  0  0
    5.8902    7.3822    1.1053 H   0  0  0  0  0  0  0  0  0  0  0  0
    4.4194    8.1506    0.4152 H   0  0  0  0  0  0  0  0  0  0  0  0
    4.6468    6.6113   -2.4017 H   0  0  0  0  0  0  0  0  0  0  0  0
    5.6049    7.9268   -3.0912 H   0  0  0  0  0  0  0  0  0  0  0  0
    4.1908    8.3316   -2.0363 H   0  0  0  0  0  0  0  0  0  0  0  0
    7.3593    8.8519   -0.0551 H   0  0  0  0  0  0  0  0  0  0  0  0
    5.9402    9.7263   -0.7646 H   0  0  0  0  0  0  0  0  0  0  0  0
    7.2431    9.0552   -1.8259 H   0  0  0  0  0  0  0  0  0  0  0  0
    2.7731    2.2023    0.0909 H   0  0  0  0  0  0  0  0  0  0  0  0
  1  2  1  0  0  0  0
  1 20  1  0  0  0  0
  1 21  1  0  0  0  0
  1 22  1  0  0  0  0
  2  3  1  0  0  0  0
  2 19  1  0  0  0  0
  3  4  2  0  0  0  0
  3 23  1  0  0  0  0
  4  5  1  0  0  0  0
  4 24  1  0  0  0  0
  5  6  1  0  0  0  0
  5 18  2  0  0  0  0
  6  7  2  0  0  0  0
  6 25  1  0  0  0  0
  7  8  1  0  0  0  0
  7 26  1  0  0  0  0
  8  9  2  0  0  0  0
  8 27  1  0  0  0  0
  9 10  1  0  0  0  0
  9 18  1  0  0  0  0
 10 11  1  0  0  0  0
 11 12  1  0  0  0  0
 11 28  1  0  0  0  0
 11 29  1  0  0  0  0
 12 13  1  0  0  0  0
 12 14  1  0  0  0  0
 12 30  1  0  0  0  0
 13 31  1  0  0  0  0
 14 15  1  0  0  0  0
 14 32  1  0  0  0  0
 14 33  1  0  0  0  0
 15 16  1  0  0  0  0
 15 17  1  0  0  0  0
 16 34  1  0  0  0  0
 16 35  1  0  0  0  0
 16 36  1  0  0  0  0
 17 37  1  0  0  0  0
 17 38  1  0  0  0  0
 17 39  1  0  0  0  0
 18 19  1  0  0  0  0
 19 40  1  0  0  0  0
M  END
$$$$
